<?xml version="1.0"?>
<edges>
 <edge id="1to2" from="1" to="2"/>
 <edge id="2to3" from="2" to="3"/>
 <edge id="3to4" from="3" to="4"/>
 <edge id="out" from="4" to="5"/>
</edges>
